FoamFile
{
  version 2.0;
  format ascii;
  class dictionary;
  location "constant";
  object transportProperties;
}

solveTD		no;
scalingFactor 0.5;
temp [ K ] 285.85;
Rh [ m s^-1 ] 1;

phases
(
  {
    d 0.0003;
    fhd 0.0141024469726926;
  }

  {
    d 0.0004;
    fhd 0.0141776154536167;
  }

  {
    d 0.0005;
    fhd 0.0227498031692402;
  }

  {
    d 0.0006;
    fhd 0.0322887759658429;
  }

  {
    d 0.0007;
    fhd 0.0422934023482615;
  }

  {
    d 0.0008;
    fhd 0.0521937135244597;
  }

  {
    d 0.0009;
    fhd 0.0613037986093192;
  }

  {
    d 0.001;
    fhd 0.102257071836287;
  }

  {
    d 0.0012;
    fhd 0.148806878747840;
  }

  {
    d 0.0014;
    fhd 0.142413785636521;
  }

  {
    d 0.0016;
    fhd 0.121803207472566;
  }

  {
    d 0.0018;
    fhd 0.0939756430403652;
  }

  {
    d 0.002;
    fhd 0.127093533658108;
  }

  {
    d 0.003;
    fhd 0.0243461560104565;
  }

  {
    d 0.004;
    fhd 0.000193995717407116;
  }

  {
    d 0.005;
    fhd 1.71821576338816e-07;
  }

  {
    d 0.006;
    fhd 1.54407856735827e-11;
  }
);

// vi: set ft=foam et sw=2 ts=2 sts=2:
