FoamFile
{
  version 2.0;
  format ascii;
  class dictionary;
  location "system";
  object fvSolution;
}

solvers
{
  p
  {
    solver GAMG;
    smoother DICGaussSeidel;
    tolerance 1e-8;
    relTol 3e-1;
  }

  U
  {
    solver PBiCG;
    preconditioner DILU;
    tolerance 1e-8;
    relTol 1e-1;
  }

  k
  {
    solver PBiCG;
    preconditioner DILU;
    tolerance 1e-8;
    relTol 1e-1;
  }

  epsilon
  {
    solver PBiCG;
    preconditioner DILU;
    tolerance 1e-8;
    relTol 1e-1;
  }
}

SIMPLE
{
  nNonOrthogonalCorrectors 0;

  residualControl
  {
    p 1e-6;
    U 1e-6;
    "(k|epsilon|omega)" 1e-6;
  }
}

potentialFlow
{
  nNonOrthogonalCorrectors 3;
}

relaxationFactors
{
  p 0.2;
  "(U|k|epsilon)" 0.8;
}

// vi: set ft=foam et sw=2 ts=2 sts=2:
